data_image0
_chemical_formula_structural       Ru2O4
_chemical_formula_sum              "Ru2 O4"
_cell_length_a       4.4968
_cell_length_b       4.4968
_cell_length_c       3.1049
_cell_angle_alpha    90.0
_cell_angle_beta     90.0
_cell_angle_gamma    90.0

_space_group_name_H-M_alt    "P 1"
_space_group_IT_number       1

loop_
  _space_group_symop_operation_xyz
  'x, y, z'

loop_
  _atom_site_type_symbol
  _atom_site_label
  _atom_site_symmetry_multiplicity
  _atom_site_fract_x
  _atom_site_fract_y
  _atom_site_fract_z
  _atom_site_occupancy
  Ru  Ru1       1.0  0.0  0.0  0.0  1.0000
  Ru  Ru2       1.0  0.5  0.5  0.5  1.0000
  O   O1        1.0  0.30567923847696715  0.30567923847696715  0.0  1.0000
  O   O2        1.0  0.6943207615230331  0.6943207615230331  0.0  1.0000
  O   O3        1.0  0.8056792384769669  0.1943207615230329  0.5  1.0000
  O   O4        1.0  0.1943207615230329  0.8056792384769669  0.5  1.0000
